3
Properties=species:S:1:pos:R:3 pbc="F F F"
O       -1.06954488       0.00000000       0.00000000
C        0.00000000       0.00000000      -0.00000000
O        0.66954488       0.00000000      -0.00000000
3
Properties=species:S:1:pos:R:3 pbc="F F F"
O       -1.06954488       0.00000000       0.00000000
C        0.00000000       0.00000000      -0.00000000
O        0.71499943       0.00000000      -0.00000000
